*KEYWORD_ID
DED
*PARAMETER
Rboltz    5.6704E-14
*PARAMETER
Rambient       300.0
*PARAMETER
Rabszero         0.0
*TOOL_FILE
inputs/thinwall_toolpath.crs
*GAUSS_LASER
500.0 1.0 0.5
*SCALAR_OUT
temp
solid_rate
theta_hist
nid_true
*CONTROL_TERMINATION
$$  ENDTIM    ENDCYC     DTMIN    ENDENG    ENDMAS
   783.830
*CONTROL_TIMESTEP
$$  DTINIT    TSSFAC      ISDO    TSLIMT     DT2MS      LCTM     EROD       E     MSIST
    1.0E-2       1.0
*CONTROL_SOLUTION
$$    SOLN
         0
*DATABASE_NODOUT
$$      DT    BINARY      LCUR      IOPT      DTHF     BINHF
    10.000         0
*MAT_THERMAL_ISOTROPIC_TD
$HMNAME MATS       1MATT1_1
         1   0.00819   1533.15   1609.15     270.0
inputs/IN718_cp.txt
inputs/IN718_cond.txt
*MAT_THERMAL_ISOTROPIC
$HMNAME MATS       2MATT1_2
         2   0.00790   1693.15   1733.15     250.0
    0.4860    0.0519
*PART
$HWCOLOR COMPS       1       3
Substrate
         1         0         1
$HWCOLOR COMPS       2       4
Build
         2         0         2
*LOAD_NODE_SET
$HMNAME LOADCOLS       1LoadNode_1
         3         1               300.0
$	 moving flux
         2         5                 0.0
$	 Radiation
         2         4                 0.2
$	 convection
         2         3             0.00005
*INITIAL_TEMPERATURE_SET
$HMNAME LOADCOLS       1InitialTemp_1
$HWCOLOR LOADCOLS       1       3
         1     300.0
*DEFINE_CURVE
         1                 1.0       1.0
          0.05714286        539.00000000
          0.10000000        540.00000000
          0.10000000        538.00000000
          0.17142857        719.00000000
          0.20000000        720.00000000
          0.20000000        718.00000000
          0.27142857        899.00000000
          0.31428572        900.00000000
          0.31428572        898.00000000
          0.38571429       1079.00000000
          0.41428572       1078.00000000
          0.41428572       1080.00000000
          0.48571429       1259.00000000
          0.52857143       1260.00000000
          0.52857143       1258.00000000
          0.60000000       1439.00000000
          0.62857143       1440.00000000
          0.62857143       1438.00000000
          0.70000000       1619.00000000
$ ... 10775 like lines cut
*NODE
$#   nid               x               y               z      tc      rc
       1      -22.500000       -1.000000       45.000000       0       0
       2      -22.500000        1.000000       45.000000       0       0
       3      -22.500000        1.000000        0.000000       0       0
       4      -22.500000       -1.000000        0.000000       0       0
       5       22.500000        1.000000       45.000000       0       0
       6       22.500000        1.000000        0.000000       0       0
       7       22.500000       -1.000000        0.000000       0       0
       8       22.500000       -1.000000       45.000000       0       0
       9       50.000000        0.000000        0.000000       0       0
      10       50.000000        0.000000      -15.000000       0       0
      11      -22.500000       -0.333333       45.000000       0       0
      12      -22.500000        0.333333       45.000000       0       0
      13      -22.500000        1.000000       44.250000       0       0
      14      -22.500000        1.000000       43.500000       0       0
      15      -22.500000        1.000000       42.750000       0       0
      16      -22.500000        1.000000       42.000000       0       0
      17      -22.500000        1.000000       41.250000       0       0
      18      -22.500000        1.000000       40.500000       0       0
      19      -22.500000        1.000000       39.750000       0       0
      20      -22.500000        1.000000       39.000000       0       0
$ ... 23552 like lines cut
*ELEMENT_SOLID
$#   eid     pid      n1      n2      n3      n4      n5      n6      n7      n8
       1       1     372    7815   12273     853       1      11     617     132
       2       1    7815    7816   12274   12273      11      12     618     617
       3       1    7816     432    4334   12274      12       2      13     618
       4       1     853   12273   12275     854     132     617     619     131
       5       1   12273   12274   12276   12275     617     618     620     619
       6       1   12274    4334    4335   12276     618      13      14     620
       7       1     854   12275   12277     855     131     619     621     130
       8       1   12275   12276   12278   12277     619     620     622     621
       9       1   12276    4335    4336   12278     620      14      15     622
      10       1     855   12277   12279     856     130     621     623     129
      11       1   12277   12278   12280   12279     621     622     624     623
      12       1   12278    4336    4337   12280     622      15      16     624
      13       1     856   12279   12281     857     129     623     625     128
      14       1   12279   12280   12282   12281     623     624     626     625
      15       1   12280    4337    4338   12282     624      16      17     626
      16       1     857   12281   12283     858     128     625     627     127
      17       1   12281   12282   12284   12283     625     626     628     627
      18       1   12282    4338    4339   12284     626      17      18     628
      19       1     858   12283   12285     859     127     627     629     126
      20       1   12283   12284   12286   12285     627     628     630     629
$ ... 17380 like lines cut
*SET_NODE_LIST
$#     sid       da1       da2       da3       da4    solver
         1
$#    nid1      nid2      nid3      nid4      nid5      nid6      nid7      nid8
         1         2         3         4         5         6         7         8
         9        10        11        12        13        14        15        16
        17        18        19        20        21        22        23        24
        25        26        27        28        29        30        31        32
        33        34        35        36        37        38        39        40
        41        42        43        44        45        46        47        48
        49        50        51        52        53        54        55        56
        57        58        59        60        61        62        63        64
        65        66        67        68        69        70        71        72
        73        74        75        76        77        78        79        80
        81        82        83        84        85        86        87        88
        89        90        91        92        93        94        95        96
        97        98        99       100       101       102       103       104
       105       106       107       108       109       110       111       112
       113       114       115       116       117       118       119       120
       121       122       123       124       125       126       127       128
       129       130       131       132       133       134       135       136
       137       138       139       140       141       142       143       144
       145       146       147       148       149       150       151       152
       153       154       155       156       157       158       159       160
$ ... 2927 like lines cut
*SET_NODE_LIST
$#     sid       da1       da2       da3       da4    solver
         2
$#    nid1      nid2      nid3      nid4      nid5      nid6      nid7      nid8
         1         2         3         4         5         6         7         8
         9        11        12        13        14        15        16        17
        18        19        20        21        22        23        24        25
        26        27        28        29        30        31        32        33
        34        35        36        37        38        39        40        41
        42        43        44        45        46        47        48        49
        50        51        52        53        54        55        56        57
        58        59        60        61        62        63        64        65
        66        67        68        69        70        71        72        73
        74        75        76        77        78        79        80        81
        82        83        84        85        86        87        88        89
        90        91        92        93        94        95        96        97
        98        99       100       101       102       103       104       105
       106       107       108       109       110       111       112       113
       114       115       116       117       118       119       120       121
       122       123       124       125       126       127       128       129
       130       131       132       133       134       135       136       137
       138       139       140       141       142       143       144       145
       146       147       148       149       150       151       152       153
       154       155       156       157       158       159       160       161
$ ... 2090 like lines cut
*SET_NODE_LIST
$#     sid       da1       da2       da3       da4    solver
         3
$#    nid1      nid2      nid3      nid4      nid5      nid6      nid7      nid8
        10       554       555       556       557       558       559       560
       561       562       563       564       565       566       567       568
       569       570       571       572       573       574       575       576
       577       578       579       580       581       582       583       584
       585       586       587       588       589       590       591       592
       593       594       595       596       597       598       599       600
       601       602       603       604       605       606       607       608
       609       610       611       612       613       614       615       616
      9976      9977      9978      9979      9980      9981      9982      9983
      9984      9985      9986      9987      9988      9989      9990      9991
      9992      9993      9994      9995      9996      9997      9998      9999
     10000     10001     10002     10003     10004     10005     10006     10007
     10008     10009     10010     10011     10012     10013     10014     10015
     10016     10017     10018     10019     10020     10021     10022     10023
     10024     10025     10026     10027     10028     10029     10030     10031
     10032     10033     10034     10035     10036     10037     10038     10039
     10040     10041     10042     10043     10044     10045     10046     10047
     10048     10049     10050     10051     10052     10053     10054     10055
     10056     10057     10058     10059     10060     10061     10062     10063
     10064     10065     10066     10067     10068     10069     10070     10071
$ ... 260 like lines cut
*SET_SOLID
$#     sid    solver
         1MECH
$#      k1        k2        k3        k4        k5        k6        k7        k8
         1         2         3         4         5         6         7         8
         9        10        11        12        13        14        15        16
        17        18        19        20        21        22        23        24
        25        26        27        28        29        30        31        32
        33        34        35        36        37        38        39        40
        41        42        43        44        45        46        47        48
        49        50        51        52        53        54        55        56
        57        58        59        60        61        62        63        64
        65        66        67        68        69        70        71        72
        73        74        75        76        77        78        79        80
        81        82        83        84        85        86        87        88
        89        90        91        92        93        94        95        96
        97        98        99       100       101       102       103       104
       105       106       107       108       109       110       111       112
       113       114       115       116       117       118       119       120
       121       122       123       124       125       126       127       128
       129       130       131       132       133       134       135       136
       137       138       139       140       141       142       143       144
       145       146       147       148       149       150       151       152
       153       154       155       156       157       158       159       160
$ ... 1330 like lines cut

*SET_SOLID
$#     sid    solver
         2MECH
$#      k1        k2        k3        k4        k5        k6        k7        k8
     10801     10802     10803     10804     10805     10806     10807     10808
     10809     10810     10811     10812     10813     10814     10815     10816
     10817     10818     10819     10820     10821     10822     10823     10824
     10825     10826     10827     10828     10829     10830     10831     10832
     10833     10834     10835     10836     10837     10838     10839     10840
     10841     10842     10843     10844     10845     10846     10847     10848
     10849     10850     10851     10852     10853     10854     10855     10856
     10857     10858     10859     10860     10861     10862     10863     10864
     10865     10866     10867     10868     10869     10870     10871     10872
     10873     10874     10875     10876     10877     10878     10879     10880
     10881     10882     10883     10884     10885     10886     10887     10888
     10889     10890     10891     10892     10893     10894     10895     10896
     10897     10898     10899     10900     10901     10902     10903     10904
     10905     10906     10907     10908     10909     10910     10911     10912
     10913     10914     10915     10916     10917     10918     10919     10920
     10921     10922     10923     10924     10925     10926     10927     10928
     10929     10930     10931     10932     10933     10934     10935     10936
     10937     10938     10939     10940     10941     10942     10943     10944
     10945     10946     10947     10948     10949     10950     10951     10952
     10953     10954     10955     10956     10957     10958     10959     10960
$ ... 805 like lines cut

*END